LTspice 24.1.5 for Windows
Circuit: E:\beadboard_monitoring\ltspice\components\Draft1.net
Start Time: Sat Nov 29 00:12:18 2025
solver = Normal
Maximum thread count: 12
tnom = 27
temp = 27
method = trap
Direct Newton iteration for .op point succeeded.
Total elapsed time: 2.297 seconds.

Files loaded:
E:\beadboard_monitoring\ltspice\components\Draft1.net
C:\Users\piken\AppData\Local\LTspice\lib\cmp\standard.mos
C:\Users\piken\AppData\Local\LTspice\lib\sub\ADA4807.sub

