LTspice 24.1.5 for Windows
Circuit: E:\beadboard_monitoring\ltspice\components\Draft2.net
Start Time: Wed Oct 22 00:50:04 2025
solver = Normal
Maximum thread count: 12
tnom = 27
temp = 27
method = trap
Direct Newton iteration failed to find .op point.  (Use ".option noopiter" to skip.)
Starting Gmin stepping
Gmin = 10
Gmin = 1.07374
Gmin = 0.115292
Gmin = 0.0123794
Gmin = 0.00132923
vernier = 0.5
vernier = 0.25
vernier = 0.125
Gmin = 0.000604946
vernier = 0.0625
vernier = 0.03125
vernier = 0.015625
Gmin = 0.000570882
vernier = 0.0078125
vernier = 0.00390625
vernier = 0.00520833
Gmin = 0.000567364
vernier = 0.00694444
Gmin = 0.000558817
vernier = 0.00925925
vernier = 0.0123457
Gmin = 0.0005451
vernier = 0.0164609
vernier = 0.0219478
Gmin = 0.000524063
vernier = 0.0292638
Gmin = 0.000491669
vernier = 0.0390184
vernier = 0.0520245
Gmin = 0.000442972
vernier = 0.0693659
vernier = 0.0924879
Gmin = 0.000375675
vernier = 0.123317
Gmin = 0.0002879
vernier = 0.164423
vernier = 0.21923
Gmin = 0.000186881
vernier = 0.292307
vernier = 0.146154
Gmin = 0.000119945
vernier = 0.0730768
vernier = 0.0365384
vernier = 0.0182692
vernier = 0.0091346
Gmin = 0.000122642
vernier = 0.0121795
vernier = 0.0162393
Gmin = 0.00011912
vernier = 0.0216524
Gmin = 0.000113622
vernier = 0.0288698
vernier = 0.0384931
Gmin = 0.000105172
vernier = 0.0513241
vernier = 0.0684321
Gmin = 9.30752e-05
vernier = 0.0912428
Gmin = 7.63875e-05
vernier = 0.121657
vernier = 0.162209
Gmin = 5.53814e-05
vernier = 0.216279
vernier = 0.288372
Gmin = 3.3429e-05
vernier = 0.384496
Gmin = 1.49164e-05
vernier = 0.512661
vernier = 0.683548
Gmin = 4.11171e-06
vernier = 0.911397
vernier = 1
Gmin = 5.97995e-07
Gmin = 6.42092e-08
vernier = 0.5
vernier = 0.25
vernier = 0.125
vernier = 0.0625
vernier = 0.03125
vernier = 0.015625
Gmin = 3.28751e-08
vernier = 0.0078125
vernier = 0.00390625
vernier = 0.00195312
vernier = 0.000976562
vernier = 0.000488281
Gmin = 0
Gmin stepping failed

Starting source stepping with srcstepmethod=0
Source Step = 3.0303%
Source Step = 33.3333%
Source Step = 63.6364%
Source Step = 88.6364%
vernier = 0.0625
Source Step = 87.8995%
Starting source stepping with srcstepmethod=1
Source Step = 3.0303%
Source Step = 33.3333%
Source Step = 63.6364%
Source Step = 88.6364%
vernier = 0.0625
Source stepping failed

Pseudo Transient succeeded in finding the operating point at 2.34948 s.
Total elapsed time: 43.584 seconds.

Files loaded:
E:\beadboard_monitoring\ltspice\components\Draft2.net
C:\Users\piken\Downloads\snom268c\lmx58_lm2904.lib

