LTspice 24.1.5 for Windows
Circuit: E:\beadboard_monitoring\ltspice\components\stand alone ina.net
Start Time: Sat Nov 29 01:32:33 2025
solver = Normal
Maximum thread count: 12
tnom = 27
temp = 27
method = trap
Direct Newton iteration failed to find .op point.  (Use ".option noopiter" to skip.)
Starting Gmin stepping
Gmin = 10
Gmin = 1.07374
Gmin = 0.115292
Gmin = 0.0123794
Gmin = 0.00132923
Gmin = 0.000142725
Gmin = 1.5325e-05
vernier = 0.5
Gmin = 4.35418e-06
vernier = 0.666667
vernier = 0.888888
Gmin = 7.73794e-07
vernier = 1
Gmin = 8.6905e-08
Gmin = 9.33136e-09
Gmin = 1.00195e-09
vernier = 0.5
Gmin = 1.68099e-10
vernier = 0.25
vernier = 0.125
vernier = 0.0625
vernier = 0.03125
vernier = 0.015625
vernier = 0.0078125
vernier = 0.00390625
vernier = 0.00195312
vernier = 0.000976562
vernier = 0.000488281
Gmin = 1.68099e-10
Gmin = 0
Gmin stepping failed

Starting source stepping with srcstepmethod=0
Source Step = 3.0303%
Source Step = 7.38636%
vernier = 0.015625
Source Step = 7.35381%
Source Step = 7.3834%
Source Step = 7.413%
Source Step = 7.44259%
Source Step = 7.47218%
vernier = 0.00146484
Source Step = 7.50326%
Source Step = 7.54764%
Source Step = 7.59203%
Source Step = 7.63642%
Source Step = 7.68081%
Source Step = 7.7252%
vernier = 0.00219727
Source Step = 7.79179%
Source Step = 7.85837%
Source Step = 7.92495%
Source Step = 7.99154%
Source Step = 8.05812%
vernier = 0.0032959
Source Step = 8.15467%
Source Step = 8.25454%
Source Step = 8.35442%
Source Step = 8.45429%
Source Step = 8.55417%
vernier = 0.00494385
Source Step = 8.694%
Source Step = 8.84381%
Source Step = 8.99362%
Source Step = 9.14344%
Source Step = 9.29325%
vernier = 0.00741577
Source Step = 9.4955%
Source Step = 9.72022%
Source Step = 9.94494%
Source Step = 10.1697%
Source Step = 10.3944%
vernier = 0.0111237
Source Step = 10.6865%
Source Step = 11.0236%
Source Step = 11.3607%
Source Step = 11.6978%
Source Step = 12.0348%
vernier = 0.0166855
Source Step = 12.4562%
Source Step = 12.9618%
Source Step = 13.4674%
Source Step = 13.9731%
Source Step = 14.4787%
vernier = 0.0250282
Source Step = 15.0854%
Source Step = 15.8438%
Source Step = 16.6023%
Source Step = 17.3607%
Source Step = 18.1191%
vernier = 0.0375423
Source Step = 18.9913%
Source Step = 19.1549%
Source Step = 19.226%
Source Step = 19.2971%
Source Step = 19.3682%
Source Step = 19.4393%
vernier = 0.00351959
Source Step = 19.5317%
Source Step = 19.6384%
Source Step = 19.745%
Source Step = 19.8517%
Source Step = 19.9583%
vernier = 0.00527939
Source Step = 20.0917%
Source Step = 20.1396%
Source Step = 20.1796%
Source Step = 20.2196%
Source Step = 20.2596%
Source Step = 20.2996%
Source Step = 20.3396%
Source Step = 20.3796%
Source Step = 20.4196%
vernier = 0.00197977
Source Step = 20.4696%
Source Step = 20.5296%
Source Step = 20.5896%
Source Step = 20.6496%
Source Step = 20.7096%
Source Step = 20.7696%
vernier = 0.00296966
Source Step = 20.8416%
Source Step = 20.9316%
Source Step = 21.0215%
Source Step = 21.1115%
Source Step = 21.2015%
vernier = 0.00445449
Source Step = 21.305%
Source Step = 21.44%
Source Step = 21.575%
Source Step = 21.71%
Source Step = 21.8011%
Source Step = 21.8348%
Source Step = 21.8686%
Source Step = 21.9023%
Source Step = 21.9361%
vernier = 0.00167043
Source Step = 21.9732%
Source Step = 22.0238%
Source Step = 22.0744%
Source Step = 22.125%
Source Step = 22.1757%
vernier = 0.00250565
Source Step = 22.2288%
Source Step = 22.3047%
Source Step = 22.3807%
Source Step = 22.4566%
Source Step = 22.5325%
Source Step = 22.6085%
vernier = 0.00375847
Source Step = 22.7224%
Source Step = 22.8362%
Source Step = 22.8619%
Source Step = 22.8903%
Source Step = 22.9188%
Source Step = 22.9473%
Source Step = 22.9758%
Source Step = 23.0042%
Source Step = 23.0327%
Source Step = 23.0612%
Source Step = 23.0897%
vernier = 0.00140943
Source Step = 23.1295%
Source Step = 23.1722%
Source Step = 23.2149%
Source Step = 23.2576%
Source Step = 23.3004%
vernier = 0.00211414
Source Step = 23.358%
Source Step = 23.4221%
Source Step = 23.4861%
Source Step = 23.5502%
Source Step = 23.6143%
vernier = 0.00317121
Source Step = 23.6976%
Source Step = 23.7937%
Source Step = 23.8898%
Source Step = 23.9859%
Source Step = 24.082%
vernier = 0.00475682
Source Step = 24.2021%
Source Step = 24.3462%
Source Step = 24.4904%
Source Step = 24.6345%
Source Step = 24.7787%
vernier = 0.00713523
Source Step = 24.9516%
Source Step = 25.1679%
Source Step = 25.3841%
Source Step = 25.6003%
Source Step = 25.8165%
vernier = 0.0107028
Source Step = 26.0652%
Source Step = 26.3895%
Source Step = 26.7138%
Source Step = 27.0381%
Source Step = 27.3625%
vernier = 0.0160543
Source Step = 27.7192%
Source Step = 28.2057%
Source Step = 28.6922%
Source Step = 29.1787%
Source Step = 29.4706%
Source Step = 29.5922%
Source Step = 29.7139%
Source Step = 29.8355%
Source Step = 29.9571%
vernier = 0.00602035
Source Step = 30.097%
Source Step = 30.2794%
Source Step = 30.4618%
Source Step = 30.5439%
Source Step = 30.5895%
Source Step = 30.6352%
Source Step = 30.6808%
Source Step = 30.7264%
vernier = 0.00225763
Source Step = 30.7834%
Source Step = 30.8518%
Source Step = 30.9202%
Source Step = 30.9886%
Source Step = 31.057%
vernier = 0.00338645
Source Step = 31.1391%
Source Step = 31.2417%
Source Step = 31.3444%
Source Step = 31.447%
Source Step = 31.5496%
vernier = 0.00507967
Source Step = 31.6676%
Source Step = 31.8215%
Source Step = 31.9755%
Source Step = 32.1294%
Source Step = 32.2833%
vernier = 0.00126992
Source Step = 32.3064%
Source Step = 32.3449%
Source Step = 32.3834%
Source Step = 32.4219%
Source Step = 32.4604%
vernier = 0.00190488
Source Step = 32.5162%
Source Step = 32.5739%
Source Step = 32.6316%
Source Step = 32.6893%
Source Step = 32.747%
Source Step = 32.8048%
vernier = 0.00285731
Source Step = 32.874%
Source Step = 32.9606%
Source Step = 33.0472%
Source Step = 33.1338%
Source Step = 33.2204%
Source Step = 33.307%
Source Step = 33.3936%
Source Step = 33.4801%
vernier = 0.00428597
Source Step = 33.61%
Source Step = 33.7399%
Source Step = 33.8698%
Source Step = 33.9996%
Source Step = 34.1295%
vernier = 0.00642896
Source Step = 34.3178%
Source Step = 34.5127%
Source Step = 34.7075%
Source Step = 34.9023%
Source Step = 35.0971%
vernier = 0.00964343
Source Step = 35.3699%
Source Step = 35.6621%
Source Step = 35.9543%
Source Step = 36.2465%
Source Step = 36.5388%
vernier = 0.0144651
Source Step = 36.9333%
Source Step = 37.3716%
Source Step = 37.8099%
Source Step = 38.2483%
Source Step = 38.6866%
vernier = 0.0216977
Source Step = 39.2565%
Source Step = 39.914%
Source Step = 40.5715%
Source Step = 40.703%
Source Step = 40.7441%
Starting source stepping with srcstepmethod=1
Source Step = 3.0303%
Source Step = 10.2273%
Source Step = 11.6477%
Source Step = 12.1212%
Source Step = 12.5947%
Source Step = 13.0682%
Source Step = 13.5417%
vernier = 0.0234375
Source Step = 14.0388%
Source Step = 14.7491%
Source Step = 15.0154%
Source Step = 15.1929%
Source Step = 15.3705%
Source Step = 15.5481%
Source Step = 15.7256%
vernier = 0.00878906
Source Step = 15.9564%
Source Step = 16.2228%
Source Step = 16.4891%
Source Step = 16.7554%
Source Step = 17.0218%
vernier = 0.0131836
Source Step = 17.2848%
Source Step = 17.3847%
Source Step = 17.4845%
Source Step = 17.5844%
Source Step = 17.6843%
Source Step = 17.7842%
vernier = 0.00494385
Source Step = 17.934%
Source Step = 18.0838%
Source Step = 18.2336%
Source Step = 18.3123%
Source Step = 18.3497%
Source Step = 18.3872%
Source Step = 18.4246%
Source Step = 18.4621%
vernier = 0.00185394
Source Step = 18.507%
Source Step = 18.5632%
Source Step = 18.6194%
Source Step = 18.6756%
Source Step = 18.7317%
vernier = 0.00278091
Source Step = 18.7963%
Source Step = 18.8806%
Source Step = 18.9649%
Source Step = 19.0492%
Source Step = 19.1334%
vernier = 0.00417137
Source Step = 19.2261%
Source Step = 19.3525%
Source Step = 19.4789%
Source Step = 19.6053%
Source Step = 19.7317%
vernier = 0.00625706
Source Step = 19.8645%
Source Step = 20.0541%
Source Step = 20.2437%
Source Step = 20.4333%
Source Step = 20.6229%
Source Step = 20.8125%
vernier = 0.00938559
Source Step = 21.0969%
Source Step = 21.1609%
Source Step = 21.232%
Source Step = 21.3031%
Source Step = 21.3742%
Source Step = 21.4453%
vernier = 0.00351959
Source Step = 21.5449%
Source Step = 21.6515%
Source Step = 21.7582%
Source Step = 21.8648%
Source Step = 21.9715%
vernier = 0.00527939
Source Step = 22.1155%
Source Step = 22.2754%
Source Step = 22.4354%
Source Step = 22.5194%
Source Step = 22.5594%
Source Step = 22.5994%
Source Step = 22.6394%
Source Step = 22.6794%
vernier = 0.00197977
Source Step = 22.7274%
Source Step = 22.7874%
Source Step = 22.8474%
Source Step = 22.9074%
Source Step = 22.9674%
vernier = 0.00296966
Source Step = 23.0364%
Source Step = 23.1264%
Source Step = 23.2163%
Source Step = 23.3063%
Source Step = 23.3963%
vernier = 0.00445449
Source Step = 23.4953%
Source Step = 23.6303%
Source Step = 23.7653%
Source Step = 23.9003%
vernier = 0.00111362
Source Step = 23.9205%
Source Step = 23.9543%
Source Step = 23.988%
Source Step = 24.0217%
Source Step = 24.0555%
vernier = 0.00167043
Source Step = 24.1044%
Source Step = 24.155%
Source Step = 24.2057%
Source Step = 24.2563%
Source Step = 24.3069%
vernier = 0.00250565
Source stepping failed

Pseudo Transient failed in finding the operating point at 5.109 µs.

Simulation stopped by user.
Total elapsed time: 7.899 seconds.

Files loaded:
E:\beadboard_monitoring\ltspice\components\stand alone ina.net
C:\Users\piken\AppData\Local\LTspice\lib\sub\AD8603.sub
C:\Users\piken\AppData\Local\LTspice\lib\sub\ADI1.lib
E:\beadboard_monitoring\ltspice\components\AD8212.cir

