LTspice 24.1.5 for Windows
Circuit: E:\beadboard_monitoring\50v boost\50V boost.net
Start Time: Sat Nov 22 01:12:25 2025
solver = Normal
Maximum thread count: 12
tnom = 27
temp = 27
method = trap
Direct Newton iteration for .op point succeeded.
Changing Tseed to 1e-10
Changing Tseed to 1e-12
Changing Tseed to 1e-09
Changing Tseed to 1e-13
Changing Tseed to 1e-08
Changing Tseed to 1e-14
Changing Tseed to 1e-07
Changing Tseed to 1e-15
Changing Tseed to 1e-06
Changing Tseed to 1e-16
Changing Tseed to 1e-05
Changing Tseed to 1e-17
Changing Tseed to 1e-17

Simulation stopped by user.
Total elapsed time: 542.879 seconds.

Files loaded:
E:\beadboard_monitoring\50v boost\50V boost.net
C:\Users\piken\AppData\Local\LTspice\lib\cmp\standard.dio
C:\Users\piken\AppData\Local\LTspice\lib\cmp\standard.mos
C:\Users\piken\AppData\Local\LTspice\lib\sub\LTC1871.sub

