
**** 04/21/23 15:16:42 ******* PSpice 17.4.0 (Nov 2018) ******* ID# 0 ********

 ** Profile: "SCHEMATIC1-MPQ8112"  [ D:\Model build\MPQ8112\MPQ8112_Pspice\MPQ8112_Pspice_before_20230421\mpq8112-pspicefiles\schemat


 ****     CIRCUIT DESCRIPTION


******************************************************************************




** Creating circuit file "MPQ8112.cir" 
** WARNING: THIS AUTOMATICALLY GENERATED FILE MAY BE OVERWRITTEN BY SUBSEQUENT SIMULATIONS

*Libraries: 
* Profile Libraries :
* Local Libraries :
.LIB "C:/Cadence/SPB_17.4/tools/pspice/library/analog.lib" 
.LIB "../../../mpq8112-pspicefiles/schematic1/mpq8112.lib" 
.LIB "D:/20181225/LOGICGATE_BB.lib" 
* From [PSPICE NETLIST] section of C:\SPB_Data\cdssetup\OrCAD_PSpice\17.4.0\PSpice.ini file:
.lib "nom.lib" 

*Analysis directives: 
.TRAN  0 3m 0 100n 
.OPTIONS ADVCONV
.PROBE64 V(alias(*)) I(alias(*)) W(alias(*)) D(alias(*)) NOISE(alias(*)) 
.INC "..\SCHEMATIC1.net" 



**** INCLUDING SCHEMATIC1.net ****
* source MPQ8112
C_C1         0 VCC  10u  TC=0,0 
R_R3         N00944 VCC  100m TC=0,0 
R_R4         0 N00944  12 TC=0,0 
V_V4         VCC 0  
+PWL 0.5m 0 1m 12 2m 12 
C_C3         0 N01503  100n  TC=0,0 
C_C2         0 VCC  1u  TC=0,0 
C_C4         0 N01593  5p  TC=0,0 
V_V6         N01503 0 5
X_U1         0 N01593 VCC N00944 N01503 VCC MPQ8112

**** RESUMING MPQ8112.cir ****
.END


ERROR(ORPSIM-15108): Subcircuit MPQ8112_F1 used by X_U1.X_F1 is undefined
